/*--------------------------------*- C++ -*----------------------------------*\
| =========                 |                                                 |
| \\      /  F ield         | OpenFOAM: The Open Source CFD Toolbox           |
|  \\    /   O peration     | Version:  2.2.0                                 |
|   \\  /    A nd           | Web:      www.OpenFOAM.org                      |
|    \\/     M anipulation  |                                                 |
\*---------------------------------------------------------------------------*/
FoamFile
{
    version     2.0;
    format      ascii;
    class       dictionary;
    location    "system";
    object      fvSolution;
}
// * * * * * * * * * * * * * * * * * * * * * * * * * * * * * * * * * * * * * //

solvers
{
    p
    {
        solver                  GAMG;
        tolerance               1e-7;
        relTol                  1e-1;
        smoother                GaussSeidel;
        agglomerator            faceAreaPair;
        nCellsInCoarsestLevel   10;
        mergeLevels             1;
        cacheAgglomeration      true;
    }

    U
    {
        solver                  PCG;
        preconditioner          DIC;
        tolerance               1e-7;
        relTol                  1e-1;
    }

    C0
    {
        solver                  GAMG;
        tolerance               1e-7;
        relTol                  0;
        smoother                GaussSeidel;
        agglomerator            faceAreaPair;
        nCellsInCoarsestLevel   10;
        mergeLevels             1;
        cacheAgglomeration      true;
    }
}

SIMPLE
{
    nNonOrthogonalCorrectors 0;
    residualControl
    {
        p               1e-6;
        U               1e-6;
    } 
}

relaxationFactors
{
    fields
    {
        p               0.15;
    }
    equations
    {
        U               0.85;
    }
}
          
concentration
{
    nCycle              100;
    tolerance           1e-6;
}

// ************************************************************************* //
